Version 4
SHEET 1 880 680
WIRE 48 128 -96 128
WIRE 144 128 48 128
WIRE 480 128 400 128
WIRE 608 128 480 128
WIRE -96 176 -96 128
WIRE 480 192 480 128
WIRE 608 192 608 128
WIRE 48 224 48 128
WIRE 608 288 608 256
WIRE 272 304 272 224
WIRE 480 304 480 272
WIRE 480 304 272 304
WIRE -96 320 -96 256
WIRE 48 320 48 288
WIRE 272 320 272 304
WIRE 272 432 272 400
FLAG -96 320 0
FLAG 272 432 0
FLAG 608 288 0
FLAG 48 320 0
SYMBOL PowerProducts\\LT1084 272 128 R0
SYMATTR InstName U1
SYMBOL voltage -96 160 R0
SYMATTR InstName V1
SYMATTR Value 16.8V
SYMBOL cap 592 192 R0
SYMATTR InstName C1
SYMATTR Value 10µF
SYMBOL res 464 176 R0
SYMATTR InstName R1
SYMATTR Value 1200
SYMBOL res 256 304 R0
SYMATTR InstName R2
SYMATTR Value 100
SYMBOL cap 32 224 R0
SYMATTR InstName C2
SYMATTR Value 10µF
TEXT 48 408 Left 2 !.tran 1
