Version 4
SHEET 1 2712 2204
WIRE 1840 -672 1840 -704
WIRE 1664 -576 1472 -576
WIRE 1840 -576 1840 -608
WIRE 1840 -576 1664 -576
WIRE 2000 -576 1840 -576
WIRE 2176 -576 2000 -576
WIRE 1472 -512 1472 -576
WIRE 2176 -512 2176 -576
WIRE 1664 -464 1664 -576
WIRE 2000 -464 2000 -576
WIRE 1424 -432 1408 -432
WIRE 2128 -432 2112 -432
WIRE 1792 -368 1712 -368
WIRE 1952 -368 1856 -368
WIRE 1472 -256 1472 -416
WIRE 1664 -256 1664 -400
WIRE 1664 -256 1472 -256
WIRE 1712 -256 1712 -368
WIRE 1712 -256 1664 -256
WIRE 1792 -256 1712 -256
WIRE 1952 -256 1952 -368
WIRE 1952 -256 1872 -256
WIRE 2000 -256 2000 -400
WIRE 2000 -256 1952 -256
WIRE 2176 -256 2176 -416
WIRE 2176 -256 2000 -256
WIRE 1472 -192 1472 -256
WIRE 2176 -192 2176 -256
WIRE 1664 -160 1664 -256
WIRE 1712 -160 1712 -256
WIRE 1792 -160 1712 -160
WIRE 1952 -160 1952 -256
WIRE 1952 -160 1856 -160
WIRE 2000 -160 2000 -256
WIRE 1424 -112 1408 -112
WIRE 2128 -112 2112 -112
WIRE 1472 32 1472 -96
WIRE 1664 32 1664 -96
WIRE 1664 32 1472 32
WIRE 1840 32 1664 32
WIRE 2000 32 2000 -96
WIRE 2000 32 1840 32
WIRE 2176 32 2176 -96
WIRE 2176 32 2000 32
WIRE 1840 64 1840 32
WIRE 1840 144 1840 128
FLAG 1840 -704 Vin
IOPIN 1840 -704 In
FLAG 1408 -432 Vffb
IOPIN 1408 -432 In
FLAG 2112 -432 Vfbb
IOPIN 2112 -432 In
FLAG 2112 -112 Vbfb
IOPIN 2112 -112 In
FLAG 1408 -112 Vbbb
IOPIN 1408 -112 In
FLAG 1840 144 GND
IOPIN 1840 144 In
SYMBOL ind 1776 -240 R270
WINDOW 0 32 56 VTop 2
WINDOW 3 5 56 VBottom 2
SYMATTR InstName LMOTOR
SYMATTR Value 10m
SYMATTR SpiceLine Ipk=173 Rser=0.05 Rpar=4.71 Cpar=0
SYMBOL IRFB7537PBF 1424 -512 R0
SYMATTR InstName F_H
SYMBOL IRFB7537PBF 1424 -192 R0
SYMATTR InstName B_L
SYMBOL IRFB7537PBF 2128 -512 R0
SYMATTR InstName B_H
SYMBOL IRFB7537PBF 2128 -192 R0
SYMATTR InstName F_L
SYMBOL diode 1680 -400 R180
WINDOW 0 24 64 Left 2
WINDOW 3 24 0 Left 2
SYMATTR InstName D1
SYMATTR Value 1N4148
SYMBOL diode 2016 -400 R180
WINDOW 0 24 64 Left 2
WINDOW 3 24 0 Left 2
SYMATTR InstName D2
SYMATTR Value 1N4148
SYMBOL diode 2016 -96 R180
WINDOW 0 24 64 Left 2
WINDOW 3 24 0 Left 2
SYMATTR InstName D3
SYMATTR Value 1N4148
SYMBOL diode 1680 -96 R180
WINDOW 0 24 64 Left 2
WINDOW 3 24 0 Left 2
SYMATTR InstName D4
SYMATTR Value 1N4148
SYMBOL polcap 1792 -144 R270
WINDOW 0 32 32 VTop 2
WINDOW 3 0 32 VBottom 2
SYMATTR InstName C2
SYMATTR Value 1200µ
SYMATTR Description Capacitor
SYMATTR Type cap
SYMATTR SpiceLine V=63 Irms=2.51 Rser=0.025 Lser=0 mfg="Nichicon" pn="UPL1J122MRH" type="Al electrolytic"
SYMBOL polcap 1856 -384 R90
WINDOW 0 0 32 VBottom 2
WINDOW 3 32 32 VTop 2
SYMATTR InstName C1
SYMATTR Value 1200µ
SYMATTR Description Capacitor
SYMATTR Type cap
SYMATTR SpiceLine V=63 Irms=2.51 Rser=0.025 Lser=0 mfg="Nichicon" pn="UPL1J122MRH" type="Al electrolytic"
SYMBOL diode 1824 -672 R0
SYMATTR InstName D5
SYMATTR Value 1N4148
SYMBOL diode 1824 64 R0
SYMATTR InstName D6
SYMATTR Value 1N4148
