Version 4
SHEET 1 2712 2204
WIRE 1664 -576 1472 -576
WIRE 1840 -576 1840 -640
WIRE 1840 -576 1664 -576
WIRE 2000 -576 1840 -576
WIRE 2192 -576 2000 -576
WIRE 1472 -512 1472 -576
WIRE 2192 -512 2192 -576
WIRE 1664 -464 1664 -576
WIRE 2000 -464 2000 -576
WIRE 1424 -432 1376 -432
WIRE 2144 -432 2112 -432
WIRE 1472 -256 1472 -416
WIRE 1664 -256 1664 -400
WIRE 1664 -256 1472 -256
WIRE 1792 -256 1664 -256
WIRE 2000 -256 2000 -400
WIRE 2000 -256 1872 -256
WIRE 2192 -256 2192 -416
WIRE 2192 -256 2000 -256
WIRE 1472 -192 1472 -256
WIRE 2192 -192 2192 -256
WIRE 1664 -160 1664 -256
WIRE 2000 -160 2000 -256
WIRE 1424 -112 1392 -112
WIRE 2144 -112 2112 -112
WIRE 1472 32 1472 -96
WIRE 1664 32 1664 -96
WIRE 1664 32 1472 32
WIRE 1840 32 1664 32
WIRE 2000 32 2000 -96
WIRE 2000 32 1840 32
WIRE 2192 32 2192 -96
WIRE 2192 32 2000 32
WIRE 1840 112 1840 32
FLAG 1840 -640 Vin
IOPIN 1840 -640 In
FLAG 1376 -432 Vffb
IOPIN 1376 -432 In
FLAG 2112 -432 Vbfb
IOPIN 2112 -432 In
FLAG 2112 -112 Vfbb
IOPIN 2112 -112 In
FLAG 1392 -112 Vbbb
IOPIN 1392 -112 In
FLAG 1840 112 GND
IOPIN 1840 112 In
SYMBOL ind 1776 -240 R270
WINDOW 0 32 56 VTop 2
WINDOW 3 5 56 VBottom 2
SYMATTR InstName LMOTOR
SYMATTR Value 1mH
SYMATTR SpiceLine Ipk=173 Rser=0.25 Rpar=0.25 Cpar=0
SYMBOL IRFB7537PBF 1424 -512 R0
SYMATTR InstName F_H
SYMBOL IRFB7537PBF 1424 -192 R0
SYMATTR InstName B_L
SYMBOL IRFB7537PBF 2144 -512 R0
SYMATTR InstName B_H
SYMBOL IRFB7537PBF 2144 -192 R0
SYMATTR InstName F_L
SYMBOL diode 1680 -400 R180
WINDOW 0 24 64 Left 2
WINDOW 3 24 0 Left 2
SYMATTR InstName D1
SYMATTR Value 1N4148
SYMBOL diode 2016 -400 R180
WINDOW 0 24 64 Left 2
WINDOW 3 24 0 Left 2
SYMATTR InstName D2
SYMATTR Value 1N4148
SYMBOL diode 2016 -96 R180
WINDOW 0 24 64 Left 2
WINDOW 3 24 0 Left 2
SYMATTR InstName D3
SYMATTR Value 1N4148
SYMBOL diode 1680 -96 R180
WINDOW 0 24 64 Left 2
WINDOW 3 24 0 Left 2
SYMATTR InstName D4
SYMATTR Value 1N4148
